-------------------------------------------------------
          Amber 24 PMEMD                              2024
          -------------------------------------------------------

  [-O]verwriting output

File Assignments:

 Here is the input file:

MD explicit solvent heavy atom low rest shake dt 0.001
&cntrl
  imin = 0, nstlim = 10000, dt=0.001,
  ntx = 1, irest = 0, ig = -1,
  ntwx = 1000, ioutfm = 1, ntpr = 50, ntwr = 500,
  iwrap = 1, nscm = 0,
  ntc = 2, ntf = 1, ntb = 2, cut = 8.0,
  ntt = 1, tautp = 1.0, temp0 = 310.0, tempi = 310.0,
  ntp = 1, taup = 1.0,
  igb = 0, saltcon = 0.0,
  ntr = 1, restraintmask = ':275-1 & !@H=', restraint_wt = 1.0,
&end

Note: ig = -1. Setting random seed to   456699 based on wallclock time in
      microseconds.

--------------------------------------------------------------------------------
   1.  RESOURCE   USE:
--------------------------------------------------------------------------------

 getting box info from netcdf restart file
 NATOM  =   42241 NTYPES =      17 NBONH =   40011 MBONA  =    2240
 NTHETH =    5204 MTHETA =    3021 NPHIH =   10232 MPHIA  =    9740
 NHPARM =       0 NPARM  =       0 NNB   =   75196 NRES   =   12882
 NBONA  =    2240 NTHETA =    3021 NPHIA =    9740 NUMBND =      59
 NUMANG =     133 NPTRA  =     175 NATYP =      33 NPHB   =       0
 IFBOX  =       2 NMXRS  =      24 IFCAP =       0 NEXTRA =       0
 NCOPY  =       0

     BOX TYPE: TRUNCATED OCTAHEDRON

--------------------------------------------------------------------------------
   2.  CONTROL  DATA  FOR  THE  RUN
--------------------------------------------------------------------------------

default_name

General flags:
     imin    =       0, nmropt  =       0

Nature and format of input:
     ntx     =       1, irest   =       0, ntrx    =       1

Nature and format of output:
     ntxo    =       2, ntpr    =      50, ntrx    =       1, ntwr    =     500
     iwrap   =       1, ntwx    =    1000, ntwv    =       0, ntwe    =       0
     ioutfm  =       1, ntwprt  =       0, idecomp =       0, rbornstat=      0

Potential function:
     ntf     =       1, ntb     =       2, igb     =       0, nsnb    =      25
     ipol    =       0, gbsa    =       0, iesp    =       0
     dielc   =   1.00000, cut     =   8.00000, intdiel =   1.00000

Frozen or restrained atoms:
     ibelly  =       0, ntr     =       1
     restraint_wt =   1.00000

Molecular dynamics:
     nstlim  =     10000, nscm    =         0, nrespa  =         1
     t       =   0.00000, dt      =   0.00100, vlimit  =  -1.00000

Berendsen (weak-coupling) temperature regulation:
     temp0   = 310.00000, tempi   = 310.00000, tautp   =   1.00000

Pressure regulation:
     ntp     =       1
     pres0   =   1.00000, comp    =  44.60000, taup    =   1.00000

SHAKE:
     ntc     =       2, jfastw  =       0
     tol     =   0.00001

Ewald parameters:
     verbose =       0, ew_type =       0, nbflag  =       1, use_pme =       1
     vdwmeth =       1, eedmeth =       1, netfrc  =       1
     Box X =   85.353   Box Y =   85.353   Box Z =   85.353
     Alpha =  109.471   Beta  =  109.471   Gamma =  109.471
     NFFT1 =   96       NFFT2 =   96       NFFT3 =   96
     Cutoff=    8.000   Tol   =0.100E-04
     Ewald Coefficient =  0.34864
     Interpolation order =    4

    LOADING THE CONSTRAINED ATOMS AS GROUPS

   5.  REFERENCE ATOM COORDINATES

  default_name
     Mask :275-1 & !@H=; matches     0 atoms

--------------------------------------------------------------------------------
   3.  ATOMIC COORDINATES AND VELOCITIES
--------------------------------------------------------------------------------

default_name
 begin time read from input coords =     0.000 ps

 Number of triangulated 3-point waters found:    12579

     Sum of charges from parm topology file =  -0.00000016
     Forcing neutrality...

--------------------------------------------------------------------------------
   4.  RESULTS
 NSTEP =        0   TIME(PS) =       0.000  TEMP(K) =   455.22  PRESS = -4968.7
 Etot   =   -131356.1323  EKtot   =     39220.3453  EPtot      =   -170576.4776
 BOND   =     12355.3732  ANGLE   =       588.8397  DIHED      =      3144.7491
 1-4 NB =       898.3048  1-4 EEL =     13034.9181  VDWAALS    =     26909.1571
 EELEC  =   -227507.8197  EHBOND  =         0.0000  RESTRAINT  =         0.0000
 EKCMT  =     11651.0934  VIRIAL  =     63003.4175  VOLUME     =    478669.0165
                                                    Density    =         0.8985
 ------------------------------------------------------------------------------

      A V E R A G E S   O V E R     200 S T E P S

 NSTEP =    10000   TIME(PS) =      10.000  TEMP(K) =   275.43  PRESS =  -274.1
 Etot   =   -109286.8821  EKtot   =     23730.0227  EPtot      =   -133016.9048
 BOND   =       772.1313  ANGLE   =      2159.6320  DIHED      =      3557.4758
 1-4 NB =      1050.5539  1-4 EEL =     13049.4632  VDWAALS    =     16943.0256
 EELEC  =   -170549.1866  EHBOND  =         0.0000  RESTRAINT  =         0.0000
 EKCMT  =     10371.0465  VIRIAL  =     13042.7696  VOLUME     =    434542.6735
                                                    Density    =         0.9905
 ------------------------------------------------------------------------------

      R M S  F L U C T U A T I O N S

 NSTEP =    10000   TIME(PS) =      10.000  TEMP(K) =    34.55  PRESS =   436.5
 Etot   =      7360.2295  EKtot   =      2976.4086  EPtot      =      4417.8685
 BOND   =       100.9398  ANGLE   =       236.4179  DIHED      =        62.1154
 1-4 NB =        23.4675  1-4 EEL =        30.1024  VDWAALS    =      1679.5927
 EELEC  =      5644.4408  EHBOND  =         0.0000  RESTRAINT  =         0.0000
 EKCMT  =      1177.4284  VIRIAL  =      3452.2167  VOLUME     =     12655.3228
                                                    Density    =         0.0276
 ------------------------------------------------------------------------------
