-------------------------------------------------------
          Amber 24 PMEMD                              2024
          -------------------------------------------------------

  [-O]verwriting output

File Assignments:

 Here is the input file:

MD explicit solvent heavy atom rest shake dt 0.001
&cntrl
  imin = 0, nstlim = 30000, dt=0.001,
  ntx = 1, irest = 0, ig = -1,
  ntwx = 1500, ioutfm = 1, ntpr = 50, ntwr = 500,
  iwrap = 1, nscm = 0,
  ntc = 2, ntf = 1, ntb = 1, cut = 8.0,
  ntt = 1, tautp = 0.5, temp0 = 310.0, tempi = 310.0,
  ntp = 0, taup = 0.5,
  igb = 0, saltcon = 0.0,
  ntr = 1, restraintmask = ':275-1 & !@H=', restraint_wt = 5.0,
&end

Note: ig = -1. Setting random seed to   471278 based on wallclock time in
      microseconds.

--------------------------------------------------------------------------------
   1.  RESOURCE   USE:
--------------------------------------------------------------------------------

 getting box info from netcdf restart file
 NATOM  =   42241 NTYPES =      17 NBONH =   40011 MBONA  =    2240
 NTHETH =    5204 MTHETA =    3021 NPHIH =   10232 MPHIA  =    9740
 NHPARM =       0 NPARM  =       0 NNB   =   75196 NRES   =   12882
 NBONA  =    2240 NTHETA =    3021 NPHIA =    9740 NUMBND =      59
 NUMANG =     133 NPTRA  =     175 NATYP =      33 NPHB   =       0
 IFBOX  =       2 NMXRS  =      24 IFCAP =       0 NEXTRA =       0
 NCOPY  =       0

     BOX TYPE: TRUNCATED OCTAHEDRON

--------------------------------------------------------------------------------
   2.  CONTROL  DATA  FOR  THE  RUN
--------------------------------------------------------------------------------

default_name

General flags:
     imin    =       0, nmropt  =       0

Nature and format of input:
     ntx     =       1, irest   =       0, ntrx    =       1

Nature and format of output:
     ntxo    =       2, ntpr    =      50, ntrx    =       1, ntwr    =     500
     iwrap   =       1, ntwx    =    1500, ntwv    =       0, ntwe    =       0
     ioutfm  =       1, ntwprt  =       0, idecomp =       0, rbornstat=      0

Potential function:
     ntf     =       1, ntb     =       1, igb     =       0, nsnb    =      25
     ipol    =       0, gbsa    =       0, iesp    =       0
     dielc   =   1.00000, cut     =   8.00000, intdiel =   1.00000

Frozen or restrained atoms:
     ibelly  =       0, ntr     =       1
     restraint_wt =   5.00000

Molecular dynamics:
     nstlim  =     30000, nscm    =         0, nrespa  =         1
     t       =   0.00000, dt      =   0.00100, vlimit  =  -1.00000

Berendsen (weak-coupling) temperature regulation:
     temp0   = 310.00000, tempi   = 310.00000, tautp   =   0.50000

SHAKE:
     ntc     =       2, jfastw  =       0
     tol     =   0.00001

Ewald parameters:
     verbose =       0, ew_type =       0, nbflag  =       1, use_pme =       1
     vdwmeth =       1, eedmeth =       1, netfrc  =       1
     Box X =   85.353   Box Y =   85.353   Box Z =   85.353
     Alpha =  109.471   Beta  =  109.471   Gamma =  109.471
     NFFT1 =   96       NFFT2 =   96       NFFT3 =   96
     Cutoff=    8.000   Tol   =0.100E-04
     Ewald Coefficient =  0.34864
     Interpolation order =    4

    LOADING THE CONSTRAINED ATOMS AS GROUPS

   5.  REFERENCE ATOM COORDINATES

  default_name
     Mask :275-1 & !@H=; matches     0 atoms

--------------------------------------------------------------------------------
   3.  ATOMIC COORDINATES AND VELOCITIES
--------------------------------------------------------------------------------

default_name
 begin time read from input coords =     0.000 ps

 Number of triangulated 3-point waters found:    12579

     Sum of charges from parm topology file =  -0.00000016
     Forcing neutrality...

--------------------------------------------------------------------------------
   4.  RESULTS
 NSTEP =        0   TIME(PS) =       0.000  TEMP(K) =   453.49  PRESS =     0.0
 Etot   =   -123988.0242  EKtot   =     39071.5375  EPtot      =   -163059.5617
 BOND   =     11566.0943  ANGLE   =       617.6611  DIHED      =      3223.8020
 1-4 NB =       917.8043  1-4 EEL =     13086.8721  VDWAALS    =     25541.6265
 EELEC  =   -218013.4221  EHBOND  =         0.0000  RESTRAINT  =         0.0000
 ------------------------------------------------------------------------------

      A V E R A G E S   O V E R     600 S T E P S

 NSTEP =    30000   TIME(PS) =      30.000  TEMP(K) =   305.01  PRESS =     0.0
 Etot   =    -98422.4652  EKtot   =     26278.6707  EPtot      =   -124701.1359
 BOND   =       834.0737  ANGLE   =      2315.1476  DIHED      =      3616.2942
 1-4 NB =      1052.8842  1-4 EEL =     13029.9979  VDWAALS    =     14317.2923
 EELEC  =   -159866.8257  EHBOND  =         0.0000  RESTRAINT  =         0.0000
 ------------------------------------------------------------------------------

      R M S  F L U C T U A T I O N S

 NSTEP =    30000   TIME(PS) =      30.000  TEMP(K) =    17.05  PRESS =     0.0
 Etot   =      3604.7297  EKtot   =      1468.6739  EPtot      =      2157.1436
 BOND   =        51.3844  ANGLE   =       116.8263  DIHED      =        28.9238
 1-4 NB =        16.2517  1-4 EEL =        33.3910  VDWAALS    =       809.1053
 EELEC  =      2747.4149  EHBOND  =         0.0000  RESTRAINT  =         0.0000
 ------------------------------------------------------------------------------
