-------------------------------------------------------
          Amber 24 PMEMD                              2024
          -------------------------------------------------------

  [-O]verwriting output

File Assignments:

 Here is the input file:

MD explicit solvent heavy atom no rest shake dt 0.002
&cntrl
  imin = 0, nstlim = 100000, dt=0.002,
  ntx = 5, irest = 1,
  ntwx = 5000, ioutfm = 1, ntpr = 10000, ntwr = 10000,
  iwrap = 1, nscm = 1000,
  ntc = 2, ntf = 1, ntb = 2, cut = 8.0,
  ntt = 1, tautp = 1.0, temp0 = 310.0, tempi = 310.0,
  ntp = 1, taup = 1.0,
  igb = 0, saltcon = 0.0,
  ntr = 0,
&end

Note: ig = -1. Setting random seed to   921495 based on wallclock time in
      microseconds.

--------------------------------------------------------------------------------
   1.  RESOURCE   USE:
--------------------------------------------------------------------------------

 getting box info from netcdf restart file
 NATOM  =   42241 NTYPES =      17 NBONH =   40011 MBONA  =    2240
 NTHETH =    5204 MTHETA =    3021 NPHIH =   10232 MPHIA  =    9740
 NHPARM =       0 NPARM  =       0 NNB   =   75196 NRES   =   12882
 NBONA  =    2240 NTHETA =    3021 NPHIA =    9740 NUMBND =      59
 NUMANG =     133 NPTRA  =     175 NATYP =      33 NPHB   =       0
 IFBOX  =       2 NMXRS  =      24 IFCAP =       0 NEXTRA =       0
 NCOPY  =       0

     BOX TYPE: TRUNCATED OCTAHEDRON

--------------------------------------------------------------------------------
   2.  CONTROL  DATA  FOR  THE  RUN
--------------------------------------------------------------------------------

default_name

General flags:
     imin    =       0, nmropt  =       0

Nature and format of input:
     ntx     =       5, irest   =       1, ntrx    =       1

Nature and format of output:
     ntxo    =       2, ntpr    =   10000, ntrx    =       1, ntwr    =   10000
     iwrap   =       1, ntwx    =    5000, ntwv    =       0, ntwe    =       0
     ioutfm  =       1, ntwprt  =       0, idecomp =       0, rbornstat=      0

Potential function:
     ntf     =       1, ntb     =       2, igb     =       0, nsnb    =      25
     ipol    =       0, gbsa    =       0, iesp    =       0
     dielc   =   1.00000, cut     =   8.00000, intdiel =   1.00000

Frozen or restrained atoms:
     ibelly  =       0, ntr     =       0

Molecular dynamics:
     nstlim  =    100000, nscm    =      1000, nrespa  =         1
     t       =   0.00000, dt      =   0.00200, vlimit  =  -1.00000

Berendsen (weak-coupling) temperature regulation:
     temp0   = 310.00000, tempi   = 310.00000, tautp   =   1.00000

Pressure regulation:
     ntp     =       1
     pres0   =   1.00000, comp    =  44.60000, taup    =   1.00000

SHAKE:
     ntc     =       2, jfastw  =       0
     tol     =   0.00001

Ewald parameters:
     verbose =       0, ew_type =       0, nbflag  =       1, use_pme =       1
     vdwmeth =       1, eedmeth =       1, netfrc  =       1
     Box X =   82.050   Box Y =   82.050   Box Z =   82.050
     Alpha =  109.471   Beta  =  109.471   Gamma =  109.471
     NFFT1 =   84       NFFT2 =   84       NFFT3 =   84
     Cutoff=    8.000   Tol   =0.100E-04
     Ewald Coefficient =  0.34864
     Interpolation order =    4

--------------------------------------------------------------------------------
   3.  ATOMIC COORDINATES AND VELOCITIES
--------------------------------------------------------------------------------

default_name
 begin time read from input coords =    40.000 ps

 Number of triangulated 3-point waters found:    12579

     Sum of charges from parm topology file =  -0.00000016
     Forcing neutrality...

--------------------------------------------------------------------------------
   4.  RESULTS
 NSTEP =    10000   TIME(PS) =      60.000  TEMP(K) =   310.89  PRESS =   160.1
 Etot   =   -100669.9128  EKtot   =     26784.6309  EPtot      =   -127454.5436
 BOND   =       847.9866  ANGLE   =      2412.7334  DIHED      =      3595.9512
 1-4 NB =      1039.4552  1-4 EEL =     13034.0013  VDWAALS    =     14758.2151
 EELEC  =   -163142.8864  EHBOND  =         0.0000  RESTRAINT  =         0.0000
 EKCMT  =     11692.1927  VIRIAL  =     10219.6019  VOLUME     =    426114.0631
                                                    Density    =         1.0093
 ------------------------------------------------------------------------------

      A V E R A G E S   O V E R      10 S T E P S

 NSTEP =   100000   TIME(PS) =     240.000  TEMP(K) =   310.49  PRESS =   -41.1
 Etot   =   -100723.3944  EKtot   =     26749.8561  EPtot      =   -127473.2505
 BOND   =       843.1789  ANGLE   =      2320.7946  DIHED      =      3584.4549
 1-4 NB =      1058.3720  1-4 EEL =     13071.1198  VDWAALS    =     14838.1410
 EELEC  =   -163189.3117  EHBOND  =         0.0000  RESTRAINT  =         0.0000
 EKCMT  =     11731.1226  VIRIAL  =     12109.5656  VOLUME     =    426258.4175
                                                    Density    =         1.0089
 ------------------------------------------------------------------------------

      R M S  F L U C T U A T I O N S

 NSTEP =   100000   TIME(PS) =     240.000  TEMP(K) =     1.29  PRESS =   103.2
 Etot   =        60.7709  EKtot   =       110.9458  EPtot      =       102.1373
 BOND   =        22.9367  ANGLE   =        43.4081  DIHED      =        16.5699
 1-4 NB =        14.1000  1-4 EEL =        30.5662  VDWAALS    =       115.2538
 EELEC  =       184.3642  EHBOND  =         0.0000  RESTRAINT  =         0.0000
 EKCMT  =        66.0541  VIRIAL  =       976.2479  VOLUME     =       688.0030
                                                    Density    =         0.0016
 ------------------------------------------------------------------------------
