-------------------------------------------------------
          Amber 24 PMEMD                              2024
          -------------------------------------------------------

  [-O]verwriting output

File Assignments:

 Here is the input file:

MD explicit solvent heavy atom minimal BB rest shake dt 0.001
&cntrl
  imin = 0, nstlim = 20000, dt=0.001,
  ntx = 5, irest = 1,
  ntwx = 1000, ioutfm = 1, ntpr = 50, ntwr = 500,
  iwrap = 1, nscm = 0,
  ntc = 2, ntf = 1, ntb = 2, cut = 8.0,
  ntt = 1, tautp = 1.0, temp0 = 310.0, tempi = 310.0,
  ntp = 1, taup = 1.0,
  igb = 0, saltcon = 0.0,
  ntr = 1, restraintmask = ":275-1@H,N,CA,HA,C,O", restraint_wt = 0.5,
&end

Note: ig = -1. Setting random seed to   299794 based on wallclock time in
      microseconds.

--------------------------------------------------------------------------------
   1.  RESOURCE   USE:
--------------------------------------------------------------------------------

 getting box info from netcdf restart file
 NATOM  =   42241 NTYPES =      17 NBONH =   40011 MBONA  =    2240
 NTHETH =    5204 MTHETA =    3021 NPHIH =   10232 MPHIA  =    9740
 NHPARM =       0 NPARM  =       0 NNB   =   75196 NRES   =   12882
 NBONA  =    2240 NTHETA =    3021 NPHIA =    9740 NUMBND =      59
 NUMANG =     133 NPTRA  =     175 NATYP =      33 NPHB   =       0
 IFBOX  =       2 NMXRS  =      24 IFCAP =       0 NEXTRA =       0
 NCOPY  =       0

     BOX TYPE: TRUNCATED OCTAHEDRON

--------------------------------------------------------------------------------
   2.  CONTROL  DATA  FOR  THE  RUN
--------------------------------------------------------------------------------

default_name

General flags:
     imin    =       0, nmropt  =       0

Nature and format of input:
     ntx     =       5, irest   =       1, ntrx    =       1

Nature and format of output:
     ntxo    =       2, ntpr    =      50, ntrx    =       1, ntwr    =     500
     iwrap   =       1, ntwx    =    1000, ntwv    =       0, ntwe    =       0
     ioutfm  =       1, ntwprt  =       0, idecomp =       0, rbornstat=      0

Potential function:
     ntf     =       1, ntb     =       2, igb     =       0, nsnb    =      25
     ipol    =       0, gbsa    =       0, iesp    =       0
     dielc   =   1.00000, cut     =   8.00000, intdiel =   1.00000

Frozen or restrained atoms:
     ibelly  =       0, ntr     =       1
     restraint_wt =   0.50000

Molecular dynamics:
     nstlim  =     20000, nscm    =         0, nrespa  =         1
     t       =   0.00000, dt      =   0.00100, vlimit  =  -1.00000

Berendsen (weak-coupling) temperature regulation:
     temp0   = 310.00000, tempi   = 310.00000, tautp   =   1.00000

Pressure regulation:
     ntp     =       1
     pres0   =   1.00000, comp    =  44.60000, taup    =   1.00000

SHAKE:
     ntc     =       2, jfastw  =       0
     tol     =   0.00001

Ewald parameters:
     verbose =       0, ew_type =       0, nbflag  =       1, use_pme =       1
     vdwmeth =       1, eedmeth =       1, netfrc  =       1
     Box X =   82.074   Box Y =   82.074   Box Z =   82.074
     Alpha =  109.471   Beta  =  109.471   Gamma =  109.471
     NFFT1 =   84       NFFT2 =   84       NFFT3 =   84
     Cutoff=    8.000   Tol   =0.100E-04
     Ewald Coefficient =  0.34864
     Interpolation order =    4

    LOADING THE CONSTRAINED ATOMS AS GROUPS

   5.  REFERENCE ATOM COORDINATES

  default_name
     Mask :275-1@H,N,CA,HA,C,O; matches     0 atoms

--------------------------------------------------------------------------------
   3.  ATOMIC COORDINATES AND VELOCITIES
--------------------------------------------------------------------------------

default_name
 begin time read from input coords =    20.000 ps

 Number of triangulated 3-point waters found:    12579

     Sum of charges from parm topology file =  -0.00000016
     Forcing neutrality...

--------------------------------------------------------------------------------
   4.  RESULTS
 NSTEP =       50   TIME(PS) =      20.050  TEMP(K) =   310.16  PRESS =   220.0
 Etot   =   -101231.8401  EKtot   =     26722.3340  EPtot      =   -127954.1741
 BOND   =       869.8379  ANGLE   =      2311.3620  DIHED      =      3617.6872
 1-4 NB =      1061.6930  1-4 EEL =     13065.0310  VDWAALS    =     15213.6749
 EELEC  =   -164093.4601  EHBOND  =         0.0000  RESTRAINT  =         0.0000
 EKCMT  =     11760.6891  VIRIAL  =      9739.1566  VOLUME     =    425626.9440
                                                    Density    =         1.0104
 ------------------------------------------------------------------------------

      A V E R A G E S   O V E R     400 S T E P S

 NSTEP =    20000   TIME(PS) =      40.000  TEMP(K) =   309.87  PRESS =    -3.1
 Etot   =   -101120.7363  EKtot   =     26697.6526  EPtot      =   -127818.3889
 BOND   =       848.6204  ANGLE   =      2353.5520  DIHED      =      3605.2739
 1-4 NB =      1061.5035  1-4 EEL =     13039.4026  VDWAALS    =     15045.6279
 EELEC  =   -163772.3693  EHBOND  =         0.0000  RESTRAINT  =         0.0000
 EKCMT  =     11637.8623  VIRIAL  =     11666.0337  VOLUME     =    425491.3482
                                                    Density    =         1.0108
 ------------------------------------------------------------------------------

      R M S  F L U C T U A T I O N S

 NSTEP =    20000   TIME(PS) =      40.000  TEMP(K) =     1.16  PRESS =   110.1
 Etot   =        32.0215  EKtot   =        99.7152  EPtot      =        99.0769
 BOND   =        24.9945  ANGLE   =        31.8157  DIHED      =        19.9835
 1-4 NB =        14.1493  1-4 EEL =        32.5593  VDWAALS    =       147.8540
 EELEC  =       195.8695  EHBOND  =         0.0000  RESTRAINT  =         0.0000
 EKCMT  =        74.4359  VIRIAL  =      1015.8702  VOLUME     =       332.1024
                                                    Density    =         0.0008
 ------------------------------------------------------------------------------
