-------------------------------------------------------
          Amber 24 PMEMD                              2024
          -------------------------------------------------------

  [-O]verwriting output

File Assignments:

 Here is the input file:

MD explicit solvent heavy atom minimal rest shake dt 0.001, 10 ps, dt=.001
&cntrl
  imin = 0, nstlim = 10000, dt=0.001,
  ntx = 5, irest = 1,
  ntwx = 1000, ioutfm = 1, ntpr = 50, ntwr = 500,
  iwrap = 1, nscm = 0,
  ntc = 2, ntf = 1, ntb = 2, cut = 8.0,
  ntt = 1, tautp = 1.0, temp0 = 310.0, tempi = 310.0,
  ntp = 1, taup = 1.0,
  igb = 0, saltcon = 0.0,
  ntr = 1, restraintmask = ':275-1 & !@H=', restraint_wt = 0.5,
&end

Note: ig = -1. Setting random seed to   810591 based on wallclock time in
      microseconds.

--------------------------------------------------------------------------------
   1.  RESOURCE   USE:
--------------------------------------------------------------------------------

 getting box info from netcdf restart file
 NATOM  =   42241 NTYPES =      17 NBONH =   40011 MBONA  =    2240
 NTHETH =    5204 MTHETA =    3021 NPHIH =   10232 MPHIA  =    9740
 NHPARM =       0 NPARM  =       0 NNB   =   75196 NRES   =   12882
 NBONA  =    2240 NTHETA =    3021 NPHIA =    9740 NUMBND =      59
 NUMANG =     133 NPTRA  =     175 NATYP =      33 NPHB   =       0
 IFBOX  =       2 NMXRS  =      24 IFCAP =       0 NEXTRA =       0
 NCOPY  =       0

     BOX TYPE: TRUNCATED OCTAHEDRON

--------------------------------------------------------------------------------
   2.  CONTROL  DATA  FOR  THE  RUN
--------------------------------------------------------------------------------

default_name

General flags:
     imin    =       0, nmropt  =       0

Nature and format of input:
     ntx     =       5, irest   =       1, ntrx    =       1

Nature and format of output:
     ntxo    =       2, ntpr    =      50, ntrx    =       1, ntwr    =     500
     iwrap   =       1, ntwx    =    1000, ntwv    =       0, ntwe    =       0
     ioutfm  =       1, ntwprt  =       0, idecomp =       0, rbornstat=      0

Potential function:
     ntf     =       1, ntb     =       2, igb     =       0, nsnb    =      25
     ipol    =       0, gbsa    =       0, iesp    =       0
     dielc   =   1.00000, cut     =   8.00000, intdiel =   1.00000

Frozen or restrained atoms:
     ibelly  =       0, ntr     =       1
     restraint_wt =   0.50000

Molecular dynamics:
     nstlim  =     10000, nscm    =         0, nrespa  =         1
     t       =   0.00000, dt      =   0.00100, vlimit  =  -1.00000

Berendsen (weak-coupling) temperature regulation:
     temp0   = 310.00000, tempi   = 310.00000, tautp   =   1.00000

Pressure regulation:
     ntp     =       1
     pres0   =   1.00000, comp    =  44.60000, taup    =   1.00000

SHAKE:
     ntc     =       2, jfastw  =       0
     tol     =   0.00001

Ewald parameters:
     verbose =       0, ew_type =       0, nbflag  =       1, use_pme =       1
     vdwmeth =       1, eedmeth =       1, netfrc  =       1
     Box X =   82.002   Box Y =   82.002   Box Z =   82.002
     Alpha =  109.471   Beta  =  109.471   Gamma =  109.471
     NFFT1 =   84       NFFT2 =   84       NFFT3 =   84
     Cutoff=    8.000   Tol   =0.100E-04
     Ewald Coefficient =  0.34864
     Interpolation order =    4

    LOADING THE CONSTRAINED ATOMS AS GROUPS

   5.  REFERENCE ATOM COORDINATES

  default_name
     Mask :275-1 & !@H=; matches     0 atoms

--------------------------------------------------------------------------------
   3.  ATOMIC COORDINATES AND VELOCITIES
--------------------------------------------------------------------------------

default_name
 begin time read from input coords =    10.000 ps

 Number of triangulated 3-point waters found:    12579

     Sum of charges from parm topology file =  -0.00000016
     Forcing neutrality...

--------------------------------------------------------------------------------
   4.  RESULTS
 NSTEP =       50   TIME(PS) =      10.050  TEMP(K) =   305.44  PRESS =   -56.1
 Etot   =   -102176.6778  EKtot   =     26315.9102  EPtot      =   -128492.5880
 BOND   =       838.5585  ANGLE   =      2370.0319  DIHED      =      3566.3501
 1-4 NB =      1046.1529  1-4 EEL =     13086.0140  VDWAALS    =     15155.8052
 EELEC  =   -164555.5006  EHBOND  =         0.0000  RESTRAINT  =         0.0000
 EKCMT  =     11424.2245  VIRIAL  =     11938.2790  VOLUME     =    424344.1644
                                                    Density    =         1.0135
 ------------------------------------------------------------------------------

      A V E R A G E S   O V E R     200 S T E P S

 NSTEP =    10000   TIME(PS) =      20.000  TEMP(K) =   308.87  PRESS =     4.9
 Etot   =   -101470.1922  EKtot   =     26610.9940  EPtot      =   -128081.1862
 BOND   =       857.4578  ANGLE   =      2380.2684  DIHED      =      3606.1247
 1-4 NB =      1065.0752  1-4 EEL =     13055.7063  VDWAALS    =     15140.6713
 EELEC  =   -164186.4899  EHBOND  =         0.0000  RESTRAINT  =         0.0000
 EKCMT  =     11563.0585  VIRIAL  =     11518.4432  VOLUME     =    424481.5320
                                                    Density    =         1.0132
 ------------------------------------------------------------------------------

      R M S  F L U C T U A T I O N S

 NSTEP =    10000   TIME(PS) =      20.000  TEMP(K) =     1.60  PRESS =   119.4
 Etot   =       265.2865  EKtot   =       137.4728  EPtot      =       200.7266
 BOND   =        24.9839  ANGLE   =        39.0691  DIHED      =        18.5659
 1-4 NB =        14.4234  1-4 EEL =        32.4622  VDWAALS    =       131.9370
 EELEC  =       263.2272  EHBOND  =         0.0000  RESTRAINT  =         0.0000
 EKCMT  =       105.8730  VIRIAL  =      1104.6006  VOLUME     =       579.6795
                                                    Density    =         0.0014
 ------------------------------------------------------------------------------
